# created with PyMOL 3.1.6.1
@<TRIPOS>MOLECULE
5TT8
19 20 1                 
SMALL
USER_CHARGES
@<TRIPOS>ATOM
1	  C1	5.905	-42.759	-78.775	C.2	1	D8W303	0.000	
2	  N1	8.723	-41.729	-79.372	N.pl3	1	D8W303	0.000	
3	  O1	9.321	-43.488	-77.599	O.2	1	D8W303	0.000	
4	  S1	8.610	-43.299	-78.911	S.O2	1	D8W303	0.000	
5	  C2	4.566	-43.106	-78.630	C.2	1	D8W303	0.000	
6	  N2	9.602	-39.478	-78.686	N.2	1	D8W303	0.000	
7	  O2	9.256	-44.189	-79.973	O.2	1	D8W303	0.000	
8	  S2	9.272	-40.866	-76.719	S.2	1	D8W303	0.000	
9	  C3	4.211	-44.432	-78.437	C.2	1	D8W303	0.000	
10	  N3	9.977	-38.704	-77.625	N.2	1	D8W303	0.000	
11	  O3	9.579	-37.217	-74.678	O.2	1	D8W303	0.000	
12	  S3	10.281	-38.551	-74.818	S.O2	1	D8W303	0.000	
13	  C4	5.192	-45.415	-78.388	C.2	1	D8W303	0.000	
14	  N4	11.906	-38.327	-74.715	N.3	1	D8W303	0.000	
15	  O4	9.833	-39.470	-73.721	O.2	1	D8W303	0.000	
16	  C5	6.536	-45.067	-78.533	C.2	1	D8W303	0.000	
17	  C6	6.891	-43.745	-78.725	C.2	1	D8W303	0.000	
18	  C7	9.168	-40.734	-78.429	C.2	1	D8W303	0.000	
19	  C8	9.876	-39.278	-76.410	C.2	1	D8W303	0.000	
@<TRIPOS>BOND
1 1 5 ar
2 1 17 ar
3 2 18 1
4 2 4 1
5 3 4 2
6 4 7 2
7 5 9 ar
8 6 10 ar
9 8 19 ar
10 9 13 ar
11 10 19 ar
12 11 12 2
13 12 14 1
14 12 15 2
15 13 16 ar
16 16 17 ar
17 4 17 1
18 6 18 ar
19 8 18 ar
20 12 19 1
@<TRIPOS>SUBSTRUCTURE
1	D8W303	1	GROUP	1 A	D8W
